297
  -OEChem-07262605563D
https://pubchem.ncbi.nlm.nih.gov/rest/pug/compound/cid/297/record/SDF?record_type=3d
  5  4  0     0  0  0  0  0  0999 V2000
    0.0000    0.0000    0.0000 C   0  0  0  0  0  0  0  0  0  0  0  0
    0.5541    0.7996    0.4965 H   0  0  0  0  0  0  0  0  0  0  0  0
    0.6833   -0.8134   -0.2536 H   0  0  0  0  0  0  0  0  0  0  0  0
   -0.7782   -0.3735    0.6692 H   0  0  0  0  0  0  0  0  0  0  0  0
   -0.4593    0.3874   -0.9121 H   0  0  0  0  0  0  0  0  0  0  0  0
  1  2  1  0  0  0  0
  1  3  1  0  0  0  0
  1  4  1  0  0  0  0
  1  5  1  0  0  0  0
M  END
